23
 energy: -30.577954236850 gnorm: 0.000267327326 xtb: 6.3.2 (30e43eb)
C         1.87928450545196   -1.36948915824481    0.02838674408199
C         2.76004865858788   -0.12579003802071   -0.04011120031878
C         1.17810509085785    0.90790130085722   -1.67799788297429
H        -0.13706537837212   -0.49401148960908   -2.64798900848880
C         1.91176112086386    1.10237572836583   -0.35522065746240
H         1.89559874261612    0.75893337446091   -2.49279667629287
H         0.56645664448077    1.78435459663843   -1.91277735516563
C         1.14496831035131   -1.56532593338687   -1.29320533965018
H         3.28738571608725    0.01359075586505    0.90574957976185
H         3.49832165277058   -0.26012113799245   -0.83536731333180
C         0.32921132454023   -0.34716892720469   -1.67098740843045
H         0.51249550745186   -2.45797714417344   -1.25670187807833
H         1.86186250365838   -1.68414513342781   -2.11772539984058
H         2.54430638361303    1.98950054677285   -0.42240340421569
H         1.18502240430933    1.26338920367759    0.44679786509508
H         2.48854691898963   -2.25180824172253    0.23449173742348
H         1.15209936750075   -1.26239364502706    0.83942864722035
Br       -1.17334038635335   -0.13310405771570   -0.44044819868697
C         3.05405656550257   -1.60182891509410   -4.99267639943477
O         2.59830563312989   -0.88012531594428   -3.99450248339304
H         4.14848825937029   -1.88791936841556   -4.89854864880570
H         2.51481024236753   -2.59192437965698   -5.13600927927766
H         2.98095219570038   -1.09352574932383   -6.00418763349291
