23
 energy: -30.580945515275 gnorm: 0.000561984195 xtb: 6.3.2 (30e43eb)
C         2.84823429471830   -1.19360966536657    0.00311167442175
C         2.94959654533005   -0.00102274637657    0.94874241572592
C         1.30357670998381    1.25083480499431   -0.46805812497494
H         1.97357939693635    0.15983493261329   -2.21800501833744
C         2.68550536140073    1.29026871622655    0.18042595643649
H         1.13064824118600    2.17112270417452   -1.03243243516774
H         0.52729761468062    1.16417360252179    0.29865260596747
C         1.46565910980459   -1.24221975190517   -0.64351900966958
H         2.21419275748899   -0.10727461022197    1.74975056963125
H         3.94383618777288    0.03184991514875    1.39668432649085
C         1.24469009212501    0.05446307748970   -1.39840994832759
H         0.69312433514348   -1.36357654271307    0.12244785198017
H         1.40540171636521   -2.09062318658562   -1.33137978844631
H         3.43135883967854    1.39934753725471   -0.61205161065625
H         2.75495253411113    2.15428471525641    0.84420929774943
H         3.59325036914497   -1.09070536004642   -0.79125513586854
H         3.03760929310101   -2.12690625290776    0.53724101626313
Br       -0.51376375780235    0.00171681109461   -2.26362135175291
O         3.45659798681217    0.32572513981491   -3.44275398292320
C         3.36604312731822   -0.16344239761969   -4.66209766642164
H         2.45679751086825    0.19119100629771   -5.23825269900933
H         4.24327346789447    0.09822437565745   -5.32588293324988
H         3.30280844695405   -1.29548513697167   -4.70340827947290
