18
 energy: -18.991582514080 gnorm: 0.000196422190 xtb: 6.4.0 (d4b70c2)
C        -1.97303449846349   -0.04720092013489   -0.65057468221609
C        -1.22618207167546   -0.71642428978024    0.50023821355087
C         0.02137935554269    1.41576521256119    0.93077273503035
H        -1.62554475473355    2.56889183611899    0.16597024044816
H        -0.09788549484675    2.85758547534599   -0.67177680242778
C        -0.83315376669296    0.31532770919789    1.55418307006879
H         0.95107817632475    0.98175247719502    0.55458171687494
H         0.28159558726585    2.15884621416054    1.68807715282217
C        -1.11869881050006    1.05348277317071   -1.27390547833484
H        -1.85276483476684   -1.48919245094849    0.95153597908964
H        -0.32521480794760   -1.19941463498878    0.11394671101014
C        -0.72491450826052    2.08527274476347   -0.22024866019801
H        -1.66927545349570    1.53900362268240   -2.08300943028742
H        -0.21552332324207    0.61145065264591   -1.70182658827477
H        -0.28322983505153   -0.16994119002916    2.36389010526624
H        -1.73659072186932    0.75760672946443    1.98126643941277
H        -2.23311032717529   -0.79030546449931   -1.40793181853194
H        -2.90283670769134    0.38650896236727   -0.27423966355958
