23
 energy: -30.571754167730 gnorm: 0.000534108285 xtb: 6.4.0 (d4b70c2)
C         0.28278897237296   -1.61956758732978   -0.33941014320354
C         0.63849166582361   -0.12939196777677   -0.37251537369343
C        -1.36198168367755    0.49447145127415   -1.75531775968519
H        -0.08872022726978   -0.84713307563927   -2.90476000477750
C        -0.63295893954320    0.71131226713003   -0.42072135754898
H        -1.05733594818911    1.25210142105027   -2.48239555297894
H        -2.44131792801696    0.58352871590212   -1.60459411893698
C        -0.94070830101693   -1.91925920981839   -1.21893066717386
H         1.23563294674388    0.12802052801250    0.50392966384061
H         1.23889399329601    0.07737865245594   -1.26307517663497
C        -1.02071344755713   -0.87972446271886   -2.32018762433525
H        -1.86099974261559   -1.88362051566616   -0.62896977274108
H        -0.85626724538661   -2.92158644551698   -1.64656690062385
H        -0.39066888911730    1.76852459740184   -0.30718804247580
H        -1.28037027257135    0.42159081618901    0.40971302391528
H         1.14076019075876   -2.19069487032194   -0.70020074816123
H         0.07201657456628   -1.93487047124881    0.68439530313488
Br       -2.39512390736284   -1.40153315867180   -3.61334763686743
C         2.02615812252634   -1.47727573732020   -4.63090442766845
O         1.59767418200927   -0.54926578225828   -3.80052308001461
H         1.40935912941781   -1.57315040740058   -5.57701251531379
H         3.08333405303553   -1.31140734175105   -4.99563589068351
H         2.03685507222010   -2.52395972883936   -4.19273511290624
